Inputs/Run_CASE9_NS3_S3_B9_H200_2days.glm
clock {
     timezone EST+5EDT;
     starttime '2009-07-21 00:00:00';
     stoptime '2009-07-23 00:01:00';
}

#set profiler=1;
#set double_format=%+.12lg
#set randomseed=10;
#set relax_naming_rules=1;
#set minimum_timestep=5;
#include "water_and_setpoint_schedule_v3.glm";

#include "appliance_schedules.glm";

#include "cap_ref_obj.glm";

module market;
module tape;
module comm;
module climate;
module residential {
     implicit_enduses NONE;
};
module powerflow {
     solver_method FBS;
     NR_iteration_limit 100;
};

class player {
     double value;
}
object player {
     name phase_A_load;
     file phase_A.player;
     loop 1;
}
object player {
     name phase_B_load;
     file phase_B.player;
     loop 1;
}
object player {
     name phase_C_load;
     file phase_C.player;
     loop 1;
}
object csv_reader {
     name CSVREADER;
     filename ColumbusWeather2009_2a.csv;
}

object climate {
     name "Columbus OH";
     tmyfile ColumbusWeather2009_2a.csv;
     reader CSVREADER;
};

class auction {
     double day_ahead_average;
 	 double day_ahead_std;
 	 double current_price_mean_24h;
     double current_price_stdev_24h;
}
object auction {
     name Market3;
     unit kW;
     period 300;
     price_cap 3.78;
     transaction_log_file log_file_CASE9_NS3_S3_B9_H200.csv;
     curve_log_file bid_curve_CASE9_NS3_S3_B9_H200.csv;
     curve_log_info EXTRA;
     object market_network_interface {
          send_broadcast true;
          market_id_prop market_id;
          name MarkNIF3;
          average_price_prop current_price_mean_24h;
          stdev_price_prop current_price_stdev_24h;
          adjust_price_prop capacity_reference_bid_price;
     };
     object recorder {
          property current_market.clearing_quantity;
          limit 100000000;
          interval 300;
          file clearedquantity_CASE9_NS3_S3_B9_H200.csv;
     };
     object recorder {
          property base_price;
          limit 100000000;
          interval 300;
          file LMPbaseprice_CASE9_NS3_S3_B9_H200.csv;
     };
     capacity_reference_object F3_Transformer1;
     capacity_reference_property power_out_real;
     max_capacity_reference_bid_quantity 999999999;
     capacity_reference_bid_price 0;
     object recorder {
          property current_price_mean_24h,current_price_stdev_24h,capacity_reference_bid_price,current_market.clearing_price,current_market.clearing_quantity,adjusted_price;
          limit 100000000;
          interval 60;
          file baseprice_clearedprice_clearedquantity_CASE9_NS3_S3_B9_H200.csv;
     };
     init_price 0.042676;
     init_stdev 0.02;
     use_future_mean_price FALSE;
     warmup 0;
}
object transformer_configuration {
     name substation_config;
     connect_type WYE_WYE;
     install_type PADMOUNT;
     primary_voltage 345000 V;
     secondary_voltage 7200 V;
     power_rating 3000;
     powerA_rating 1000;
     powerB_rating 1000;
     powerC_rating 1000;
     impedance 0.0015+0.00675j;
}

object transformer_configuration {
     name default_transformer_A;
     connect_type SINGLE_PHASE_CENTER_TAPPED;
     install_type PADMOUNT;
     primary_voltage 7200 V;
     secondary_voltage 124 V;
     power_rating 1000;
     powerA_rating 1000;
     impedance 0.015+0.0675j;
}

object transformer_configuration {
     name default_transformer_B;
     connect_type SINGLE_PHASE_CENTER_TAPPED;
     install_type PADMOUNT;
     primary_voltage 7200 V;
     secondary_voltage 124 V;
     power_rating 1000;
     powerB_rating 1000;
     impedance 0.015+0.0675j;
}

object transformer_configuration {
     name default_transformer_C;
     connect_type SINGLE_PHASE_CENTER_TAPPED;
     install_type PADMOUNT;
     primary_voltage 7200 V;
     secondary_voltage 124 V;
     power_rating 1000;
     powerC_rating 1000;
     impedance 0.015+0.0675j;
}

object triplex_line_conductor {
     name Name_1_0_AA_triplex;
     resistance 0.57;
     geometric_mean_radius 0.0111;
}

object triplex_line_configuration {
     name TLCFG;
     conductor_1 Name_1_0_AA_triplex;
     conductor_2 Name_1_0_AA_triplex;
     conductor_N Name_1_0_AA_triplex;
     insulation_thickness 0.08;
     diameter 0.368;
}

object substation {
     bustype SWING;
     name substation_root;
     nominal_voltage 345000;
     power_convergence_value 5000;
     reference_phase PHASE_A;
     phases ABCN;
     object transmissioncom {
          name SUBSTATIONCOM3;
          connected_bus 9;
          parent_voltage_property positive_sequence_voltage;
          parent_power_property distribution_load;
     };
    object recorder {
          property measured_real_power;
          property distribution_load.real;
          limit 100000000;
          interval 60;
          file substLoad_CASE9_NS3_S3_B9_H200.csv;
     };
}

object transformer {
     phases ABCN;
     groupid F3_Network_Trans;
     name F3_Transformer1;
     from substation_root;
     to F3_transformer_meter;
     configuration substation_config;
     object recorder {
          property power_in.real;
          limit 100000000;
          interval 60;
          file transLoad_CASE9_NS3_S3_B9_H200.csv;
     };
}

object meter {
     name F3_transformer_meter;
     phases ABCN;
     nominal_voltage 7200;
}

object load {
     name F3_unresp_load;
     nominal_voltage 7200;
     phases ABCN;
     parent F3_transformer_meter;
     constant_power_A_real phase_A_load.value*0.0668;
     constant_power_B_real phase_B_load.value*0.0668;
     constant_power_C_real phase_C_load.value*0.0668;
};

object transformer {
     name F3_center_tap_transformer_A;
     phases AS;
     from F3_transformer_meter;
     to F3_triplex_node_A;
     configuration default_transformer_A;
}

object transformer {
     name F3_center_tap_transformer_B;
     phases BS;
     from F3_transformer_meter;
     to F3_triplex_node_B;
     configuration default_transformer_B;
}

object transformer {
     name F3_center_tap_transformer_C;
     phases CS;
     from F3_transformer_meter;
     to F3_triplex_node_C;
     configuration default_transformer_C;
}

object triplex_meter {
     name F3_triplex_node_A;
     phases AS;
     nominal_voltage 124.00;
}

object triplex_meter {
     name F3_triplex_node_B;
     phases BS;
     nominal_voltage 124.00;
}

object triplex_meter {
     name F3_triplex_node_C;
     phases CS;
     nominal_voltage 124.00;
}

object triplex_line {
     from F3_triplex_node_A;
     to F3_tpm_flatrate_A1;
     groupid F3_Triplex_Line;
     phases AS;
     length 10;
     configuration TLCFG;
}

object triplex_meter {
     nominal_voltage 124;
     phases AS;
     name F3_tpm_flatrate_A1;
     groupid F3_flatrate_meter;
}

object triplex_meter {
     nominal_voltage 124;
     phases AS;
     name F3_tpm_rt_A1;
     groupid F3_rt_meter;
     parent F3_tpm_flatrate_A1;
}

object house {
     name F3_H_1;
     //Residential_2
     parent F3_tpm_rt_A1;
     schedule_skew -685;
     Rroof 33.69;
     Rwall 17.71;
     Rfloor 17.02;
     Rdoors 5;
     Rwindows 1.81;
     airchange_per_hour 0.80;
     hvac_power_factor 0.97;
     cooling_system_type ELECTRIC;
     heating_system_type GAS;
     fan_type ONE_SPEED;
     hvac_breaker_rating 200;
     total_thermal_mass_per_floor_area 3.01;
     motor_efficiency AVERAGE;
     motor_model BASIC;
     cooling_COP 3.90;
     floor_area 1040;
     number_of_doors 2;
     air_temperature 71.9;
     mass_temperature 71.9;
     heating_setpoint heating7*0.985+2.01;

     object controller {
          name F3_C_1;
          use_override ON;
          override override;
          market Market3;
          schedule_skew -685;
          bid_mode PROXY;
          object controller_network_interface {
               name F3_single_ramp_NIF_1;
               destination MarkNIF3;
          };
          control_mode RAMP;
          base_setpoint cooling4*1.035+3.08;
          setpoint cooling_setpoint;
          target air_temperature;
          deadband thermostat_deadband;
          use_predictive_bidding TRUE;
          average_target current_price_mean_24h;
          standard_deviation_target current_price_stdev_24h;
          period 300;
          demand last_cooling_load;
           range_high 4.000;
           range_low -2.000;
           ramp_high 2.600;
           ramp_low 2.600;
          total total_load;
          load hvac_load;
          state power_state;
     };

     object ZIPload {
          schedule_skew -685;
          base_power LIGHTS*2.1291;
          power_fraction 0.000000;
          impedance_fraction 1.000000;
          current_fraction 0.000000;
          power_pf 0.000;
          current_pf 0.000;
          impedance_pf 1.000;
          heat_fraction 0.66;
     };
     object ZIPload {
          schedule_skew -685;
          base_power CLOTHESWASHER*0.5502;
          power_fraction 1.000000;
          impedance_fraction 0.000000;
          current_fraction 0.000000;
          power_pf 0.970;
          current_pf 0.970;
          impedance_pf 0.970;
          heat_fraction 0.80;
     };
     object ZIPload {
          schedule_skew -685;
          base_power REFRIGERATOR*0.9250;
          power_fraction 1.000000;
          impedance_fraction 0.000000;
          current_fraction 0.000000;
          power_pf 0.970;
          current_pf 0.970;
          impedance_pf 0.970;
          heat_fraction 0.89;
     };
     object ZIPload {
          schedule_skew -685;
          base_power DRYER*0.7056;
          power_fraction 0.100000;
          impedance_fraction 0.800000;
          current_fraction 0.100000;
          power_pf 0.900;
          current_pf 0.900;
          impedance_pf 1.000;
          heat_fraction 0.85;
     };
     object ZIPload {
          schedule_skew -685;
          base_power FREEZER*0.7751;
          power_fraction 1.000000;
          impedance_fraction 0.000000;
          current_fraction 0.000000;
          power_pf 0.970;
          current_pf 0.970;
          impedance_pf 0.970;
          heat_fraction 0.91;
     };
     object ZIPload {
          schedule_skew -685;
          base_power RANGE*0.9284;
          power_fraction 0.000000;
          impedance_fraction 1.000000;
          current_fraction 0.000000;
          power_pf 0.000;
          current_pf 0.000;
          impedance_pf 1.000;
          heat_fraction 0.74;
     };
     object ZIPload {
          schedule_skew -685;
          base_power MICROWAVE*1.1233;
          power_fraction 1.000000;
          impedance_fraction 0.000000;
          current_fraction 0.000000;
          power_pf 0.970;
          current_pf 0.970;
          impedance_pf 0.970;
          heat_fraction 0.89;
     };
}

object triplex_line {
     from F3_triplex_node_A;
     to F3_tpm_flatrate_A2;
     groupid F3_Triplex_Line;
     phases AS;
     length 10;
     configuration TLCFG;
}

object triplex_meter {
     nominal_voltage 124;
     phases AS;
     name F3_tpm_flatrate_A2;
     groupid F3_flatrate_meter;
}

object triplex_meter {
     nominal_voltage 124;
     phases AS;
     name F3_tpm_rt_A2;
     groupid F3_rt_meter;
     parent F3_tpm_flatrate_A2;
}

object house {
     name F3_H_2;
     //Residential_4
     parent F3_tpm_rt_A2;
     schedule_skew -1135;
     Rroof 29.47;
     Rwall 20.96;
     Rfloor 13.30;
     Rdoors 5;
     Rwindows 1.94;
     airchange_per_hour 1.13;
     hvac_power_factor 0.97;
     cooling_system_type ELECTRIC;
     heating_system_type GAS;
     fan_type ONE_SPEED;
     hvac_breaker_rating 200;
     total_thermal_mass_per_floor_area 4.10;
     motor_efficiency AVERAGE;
     motor_model BASIC;
     cooling_COP 4.04;
     floor_area 3626;
     number_of_doors 4;
     air_temperature 71.4;
     mass_temperature 71.4;
     heating_setpoint heating3*1.028+2.54;

     object controller {
          name F3_C_2;
          use_override ON;
          override override;
          market Market3;
          schedule_skew -1135;
          bid_mode PROXY;
          object controller_network_interface {
               name F3_single_ramp_NIF_2;
               destination MarkNIF3;
          };
          control_mode RAMP;
          base_setpoint cooling8*1.028+3.58;
          setpoint cooling_setpoint;
          target air_temperature;
          deadband thermostat_deadband;
          use_predictive_bidding TRUE;
          average_target current_price_mean_24h;
          standard_deviation_target current_price_stdev_24h;
          period 300;
          demand last_cooling_load;
           range_high 0.000;
           range_low 0.000;
           ramp_high 3.000;
           ramp_low 3.000;
          total total_load;
          load hvac_load;
          state power_state;
     };

     object ZIPload {
          schedule_skew -1135;
          base_power LIGHTS*3.1209;
          power_fraction 0.000000;
          impedance_fraction 1.000000;
          current_fraction 0.000000;
          power_pf 0.000;
          current_pf 0.000;
          impedance_pf 1.000;
          heat_fraction 0.78;
     };
     object ZIPload {
          schedule_skew -1135;
          base_power CLOTHESWASHER*1.3560;
          power_fraction 1.000000;
          impedance_fraction 0.000000;
          current_fraction 0.000000;
          power_pf 0.970;
          current_pf 0.970;
          impedance_pf 0.970;
          heat_fraction 0.89;
     };
     object ZIPload {
          schedule_skew -1135;
          base_power REFRIGERATOR*1.6513;
          power_fraction 1.000000;
          impedance_fraction 0.000000;
          current_fraction 0.000000;
          power_pf 0.970;
          current_pf 0.970;
          impedance_pf 0.970;
          heat_fraction 0.85;
     };
     object ZIPload {
          schedule_skew -1135;
          base_power DRYER*1.3765;
          power_fraction 0.100000;
          impedance_fraction 0.800000;
          current_fraction 0.100000;
          power_pf 0.900;
          current_pf 0.900;
          impedance_pf 1.000;
          heat_fraction 0.76;
     };
     object ZIPload {
          schedule_skew -1135;
          base_power FREEZER*1.4174;
          power_fraction 1.000000;
          impedance_fraction 0.000000;
          current_fraction 0.000000;
          power_pf 0.970;
          current_pf 0.970;
          impedance_pf 0.970;
          heat_fraction 0.78;
     };
     object ZIPload {
          schedule_skew -1135;
          base_power RANGE*1.1757;
          power_fraction 0.000000;
          impedance_fraction 1.000000;
          current_fraction 0.000000;
          power_pf 0.000;
          current_pf 0.000;
          impedance_pf 1.000;
          heat_fraction 0.78;
     };
     object ZIPload {
          schedule_skew -1135;
          base_power MICROWAVE*1.3848;
          power_fraction 1.000000;
          impedance_fraction 0.000000;
          current_fraction 0.000000;
          power_pf 0.970;
          current_pf 0.970;
          impedance_pf 0.970;
          heat_fraction 0.86;
     };
}

object triplex_line {
     from F3_triplex_node_A;
     to F3_tpm_flatrate_A3;
     groupid F3_Triplex_Line;
     phases AS;
     length 10;
     configuration TLCFG;
}

object triplex_meter {
     nominal_voltage 124;
     phases AS;
     name F3_tpm_flatrate_A3;
     groupid F3_flatrate_meter;
}

object triplex_meter {
     nominal_voltage 124;
     phases AS;
     name F3_tpm_rt_A3;
     groupid F3_rt_meter;
     parent F3_tpm_flatrate_A3;
}

object house {
     name F3_H_3;
     //Residential_2
     parent F3_tpm_rt_A3;
     schedule_skew -2063;
     Rroof 32.04;
     Rwall 16.39;
     Rfloor 17.53;
     Rdoors 5;
     Rwindows 2.00;
     airchange_per_hour 1.08;
     hvac_power_factor 0.97;
     cooling_system_type ELECTRIC;
     heating_system_type GAS;
     fan_type ONE_SPEED;
     hvac_breaker_rating 200;
     total_thermal_mass_per_floor_area 4.09;
     motor_efficiency AVERAGE;
     motor_model BASIC;
     cooling_COP 3.50;
     floor_area 1492;
     number_of_doors 2;
     air_temperature 71.2;
     mass_temperature 71.2;
     heating_setpoint heating6*0.952+1.41;

     object controller {
          name F3_C_3;
          use_override ON;
          override override;
          market Market3;
          schedule_skew -2063;
          bid_mode PROXY;
          object controller_network_interface {
               name F3_single_ramp_NIF_3;
               destination MarkNIF3;
          };
          control_mode RAMP;
          base_setpoint cooling8*0.955+2.21;
          setpoint cooling_setpoint;
          target air_temperature;
          deadband thermostat_deadband;
          use_predictive_bidding TRUE;
          average_target current_price_mean_24h;
          standard_deviation_target current_price_stdev_24h;
          period 300;
          demand last_cooling_load;
           range_high 4.000;
           range_low -2.000;
           ramp_high 2.600;
           ramp_low 2.600;
          total total_load;
          load hvac_load;
          state power_state;
     };

     object ZIPload {
          schedule_skew -2063;
          base_power LIGHTS*2.0976;
          power_fraction 0.000000;
          impedance_fraction 1.000000;
          current_fraction 0.000000;
          power_pf 0.000;
          current_pf 0.000;
          impedance_pf 1.000;
          heat_fraction 0.69;
     };
     object ZIPload {
          schedule_skew -2063;
          base_power CLOTHESWASHER*0.6511;
          power_fraction 1.000000;
          impedance_fraction 0.000000;
          current_fraction 0.000000;
          power_pf 0.970;
          current_pf 0.970;
          impedance_pf 0.970;
          heat_fraction 0.83;
     };
     object ZIPload {
          schedule_skew -2063;
          base_power REFRIGERATOR*0.4648;
          power_fraction 1.000000;
          impedance_fraction 0.000000;
          current_fraction 0.000000;
          power_pf 0.970;
          current_pf 0.970;
          impedance_pf 0.970;
          heat_fraction 0.92;
     };
     object ZIPload {
          schedule_skew -2063;
          base_power DRYER*0.4811;
          power_fraction 0.100000;
          impedance_fraction 0.800000;
          current_fraction 0.100000;
          power_pf 0.900;
          current_pf 0.900;
          impedance_pf 1.000;
          heat_fraction 0.88;
     };
     object ZIPload {
          schedule_skew -2063;
          base_power FREEZER*1.3799;
          power_fraction 1.000000;
          impedance_fraction 0.000000;
          current_fraction 0.000000;
          power_pf 0.970;
          current_pf 0.970;
          impedance_pf 0.970;
          heat_fraction 0.87;
     };
     object ZIPload {
          schedule_skew -2063;
          base_power RANGE*1.0617;
          power_fraction 0.000000;
          impedance_fraction 1.000000;
          current_fraction 0.000000;
          power_pf 0.000;
          current_pf 0.000;
          impedance_pf 1.000;
          heat_fraction 0.95;
     };
     object ZIPload {
          schedule_skew -2063;
          base_power MICROWAVE*0.6549;
          power_fraction 1.000000;
          impedance_fraction 0.000000;
          current_fraction 0.000000;
          power_pf 0.970;
          current_pf 0.970;
          impedance_pf 0.970;
          heat_fraction 0.82;
     };
}

object triplex_line {
     from F3_triplex_node_A;
     to F3_tpm_flatrate_A4;
     groupid F3_Triplex_Line;
     phases AS;
     length 10;
     configuration TLCFG;
}

object triplex_meter {
     nominal_voltage 124;
     phases AS;
     name F3_tpm_flatrate_A4;
     groupid F3_flatrate_meter;
}

object triplex_meter {
     nominal_voltage 124;
     phases AS;
     name F3_tpm_rt_A4;
     groupid F3_rt_meter;
     parent F3_tpm_flatrate_A4;
}

object house {
     name F3_H_4;
     //Residential_2
     parent F3_tpm_rt_A4;
     schedule_skew 417;
     Rroof 28.93;
     Rwall 18.92;
     Rfloor 13.77;
     Rdoors 5;
     Rwindows 1.62;
     airchange_per_hour 0.85;
     hvac_power_factor 0.97;
     cooling_system_type ELECTRIC;
     heating_system_type GAS;
     fan_type ONE_SPEED;
     hvac_breaker_rating 200;
     total_thermal_mass_per_floor_area 3.10;
     motor_efficiency AVERAGE;
     motor_model BASIC;
     cooling_COP 3.72;
     floor_area 1056;
     number_of_doors 2;
     air_temperature 68.9;
     mass_temperature 68.9;
     heating_setpoint heating1*1.042+2.05;

     object controller {
          name F3_C_4;
          use_override ON;
          override override;
          market Market3;
          schedule_skew 417;
          bid_mode PROXY;
          object controller_network_interface {
               name F3_single_ramp_NIF_4;
               destination MarkNIF3;
          };
          control_mode RAMP;
          base_setpoint cooling8*1.043+3.87;
          setpoint cooling_setpoint;
          target air_temperature;
          deadband thermostat_deadband;
          use_predictive_bidding TRUE;
          average_target current_price_mean_24h;
          standard_deviation_target current_price_stdev_24h;
          period 300;
          demand last_cooling_load;
           range_high 6.000;
           range_low -3.000;
           ramp_high 2.400;
           ramp_low 2.400;
          total total_load;
          load hvac_load;
          state power_state;
     };

     object ZIPload {
          schedule_skew 417;
          base_power LIGHTS*0.8404;
          power_fraction 0.000000;
          impedance_fraction 1.000000;
          current_fraction 0.000000;
          power_pf 0.000;
          current_pf 0.000;
          impedance_pf 1.000;
          heat_fraction 0.75;
     };
     object ZIPload {
          schedule_skew 417;
          base_power CLOTHESWASHER*0.4837;
          power_fraction 1.000000;
          impedance_fraction 0.000000;
          current_fraction 0.000000;
          power_pf 0.970;
          current_pf 0.970;
          impedance_pf 0.970;
          heat_fraction 0.73;
     };
     object ZIPload {
          schedule_skew 417;
          base_power REFRIGERATOR*0.7045;
          power_fraction 1.000000;
          impedance_fraction 0.000000;
          current_fraction 0.000000;
          power_pf 0.970;
          current_pf 0.970;
          impedance_pf 0.970;
          heat_fraction 0.93;
     };
     object ZIPload {
          schedule_skew 417;
          base_power DRYER*1.1492;
          power_fraction 0.100000;
          impedance_fraction 0.800000;
          current_fraction 0.100000;
          power_pf 0.900;
          current_pf 0.900;
          impedance_pf 1.000;
          heat_fraction 0.70;
     };
     object ZIPload {
          schedule_skew 417;
          base_power FREEZER*0.5110;
          power_fraction 1.000000;
          impedance_fraction 0.000000;
          current_fraction 0.000000;
          power_pf 0.970;
          current_pf 0.970;
          impedance_pf 0.970;
          heat_fraction 0.76;
     };
     object ZIPload {
          schedule_skew 417;
          base_power RANGE*0.9681;
          power_fraction 0.000000;
          impedance_fraction 1.000000;
          current_fraction 0.000000;
          power_pf 0.000;
          current_pf 0.000;
          impedance_pf 1.000;
          heat_fraction 0.84;
     };
     object ZIPload {
          schedule_skew 417;
          base_power MICROWAVE*0.6473;
          power_fraction 1.000000;
          impedance_fraction 0.000000;
          current_fraction 0.000000;
          power_pf 0.970;
          current_pf 0.970;
          impedance_pf 0.970;
          heat_fraction 0.72;
     };
}

object triplex_line {
     from F3_triplex_node_A;
     to F3_tpm_flatrate_A5;
     groupid F3_Triplex_Line;
     phases AS;
     length 10;
     configuration TLCFG;
}

object triplex_meter {
     nominal_voltage 124;
     phases AS;
     name F3_tpm_flatrate_A5;
     groupid F3_flatrate_meter;
}

object triplex_meter {
     nominal_voltage 124;
     phases AS;
     name F3_tpm_rt_A5;
     groupid F3_rt_meter;
     parent F3_tpm_flatrate_A5;
}

object house {
     name F3_H_5;
     //Residential_5
     parent F3_tpm_rt_A5;
     schedule_skew -1120;
     Rroof 16.90;
     Rwall 5.81;
     Rfloor 4.25;
     Rdoors 3;
     Rwindows 0.79;
     airchange_per_hour 1.60;
     hvac_power_factor 0.97;
     cooling_system_type ELECTRIC;
     heating_system_type GAS;
     fan_type ONE_SPEED;
     hvac_breaker_rating 200;
     total_thermal_mass_per_floor_area 4.72;
     motor_efficiency AVERAGE;
     motor_model BASIC;
     cooling_COP 2.08;
     floor_area 811;
     number_of_doors 1;
     air_temperature 69.7;
     mass_temperature 69.7;
     heating_setpoint heating8*0.970+0.74;

     object controller {
          name F3_C_5;
          use_override ON;
          override override;
          market Market3;
          schedule_skew -1120;
          bid_mode PROXY;
          object controller_network_interface {
               name F3_single_ramp_NIF_5;
               destination MarkNIF3;
          };
          control_mode RAMP;
          base_setpoint cooling3*1.049+4.80;
          setpoint cooling_setpoint;
          target air_temperature;
          deadband thermostat_deadband;
          use_predictive_bidding TRUE;
          average_target current_price_mean_24h;
          standard_deviation_target current_price_stdev_24h;
          period 300;
          demand last_cooling_load;
           range_high 0.000;
           range_low 0.000;
           ramp_high 3.000;
           ramp_low 3.000;
          total total_load;
          load hvac_load;
          state power_state;
     };

     object ZIPload {
          schedule_skew -1120;
          base_power LIGHTS*1.0691;
          power_fraction 0.000000;
          impedance_fraction 1.000000;
          current_fraction 0.000000;
          power_pf 0.000;
          current_pf 0.000;
          impedance_pf 1.000;
          heat_fraction 0.90;
     };
     object ZIPload {
          schedule_skew -1120;
          base_power CLOTHESWASHER*0.3763;
          power_fraction 1.000000;
          impedance_fraction 0.000000;
          current_fraction 0.000000;
          power_pf 0.970;
          current_pf 0.970;
          impedance_pf 0.970;
          heat_fraction 0.70;
     };
     object ZIPload {
          schedule_skew -1120;
          base_power REFRIGERATOR*0.3743;
          power_fraction 1.000000;
          impedance_fraction 0.000000;
          current_fraction 0.000000;
          power_pf 0.970;
          current_pf 0.970;
          impedance_pf 0.970;
          heat_fraction 0.65;
     };
     object ZIPload {
          schedule_skew -1120;
          base_power DRYER*0.7096;
          power_fraction 0.100000;
          impedance_fraction 0.800000;
          current_fraction 0.100000;
          power_pf 0.900;
          current_pf 0.900;
          impedance_pf 1.000;
          heat_fraction 0.67;
     };
     object ZIPload {
          schedule_skew -1120;
          base_power FREEZER*0.8600;
          power_fraction 1.000000;
          impedance_fraction 0.000000;
          current_fraction 0.000000;
          power_pf 0.970;
          current_pf 0.970;
          impedance_pf 0.970;
          heat_fraction 0.67;
     };
     object ZIPload {
          schedule_skew -1120;
          base_power RANGE*0.4963;
          power_fraction 0.000000;
          impedance_fraction 1.000000;
          current_fraction 0.000000;
          power_pf 0.000;
          current_pf 0.000;
          impedance_pf 1.000;
          heat_fraction 0.90;
     };
     object ZIPload {
          schedule_skew -1120;
          base_power MICROWAVE*0.8850;
          power_fraction 1.000000;
          impedance_fraction 0.000000;
          current_fraction 0.000000;
          power_pf 0.970;
          current_pf 0.970;
          impedance_pf 0.970;
          heat_fraction 0.66;
     };
}

object triplex_line {
     from F3_triplex_node_A;
     to F3_tpm_flatrate_A6;
     groupid F3_Triplex_Line;
     phases AS;
     length 10;
     configuration TLCFG;
}

object triplex_meter {
     nominal_voltage 124;
     phases AS;
     name F3_tpm_flatrate_A6;
     groupid F3_flatrate_meter;
}

object triplex_meter {
     nominal_voltage 124;
     phases AS;
     name F3_tpm_rt_A6;
     groupid F3_rt_meter;
     parent F3_tpm_flatrate_A6;
}

object house {
     name F3_H_6;
     //Residential_5
     parent F3_tpm_rt_A6;
     schedule_skew -315;
     Rroof 14.76;
     Rwall 7.17;
     Rfloor 6.00;
     Rdoors 3;
     Rwindows 0.89;
     airchange_per_hour 1.30;
     hvac_power_factor 0.97;
     cooling_system_type ELECTRIC;
     heating_system_type GAS;
     fan_type ONE_SPEED;
     hvac_breaker_rating 200;
     total_thermal_mass_per_floor_area 4.45;
     motor_efficiency AVERAGE;
     motor_model BASIC;
     cooling_COP 2.89;
     floor_area 687;
     number_of_doors 1;
     air_temperature 71.9;
     mass_temperature 71.9;
     heating_setpoint heating5*1.050+0.14;

     object controller {
          name F3_C_6;
          use_override ON;
          override override;
          market Market3;
          schedule_skew -315;
          bid_mode PROXY;
          object controller_network_interface {
               name F3_single_ramp_NIF_6;
               destination MarkNIF3;
          };
          control_mode RAMP;
          base_setpoint cooling3*1.037+4.81;
          setpoint cooling_setpoint;
          target air_temperature;
          deadband thermostat_deadband;
          use_predictive_bidding TRUE;
          average_target current_price_mean_24h;
          standard_deviation_target current_price_stdev_24h;
          period 300;
          demand last_cooling_load;
           range_high 4.000;
           range_low -2.000;
           ramp_high 2.600;
           ramp_low 2.600;
          total total_load;
          load hvac_load;
          state power_state;
     };

     object ZIPload {
          schedule_skew -315;
          base_power LIGHTS*1.7647;
          power_fraction 0.000000;
          impedance_fraction 1.000000;
          current_fraction 0.000000;
          power_pf 0.000;
          current_pf 0.000;
          impedance_pf 1.000;
          heat_fraction 0.81;
     };
     object ZIPload {
          schedule_skew -315;
          base_power CLOTHESWASHER*0.8216;
          power_fraction 1.000000;
          impedance_fraction 0.000000;
          current_fraction 0.000000;
          power_pf 0.970;
          current_pf 0.970;
          impedance_pf 0.970;
          heat_fraction 0.90;
     };
     object ZIPload {
          schedule_skew -315;
          base_power REFRIGERATOR*0.9577;
          power_fraction 1.000000;
          impedance_fraction 0.000000;
          current_fraction 0.000000;
          power_pf 0.970;
          current_pf 0.970;
          impedance_pf 0.970;
          heat_fraction 0.93;
     };
     object ZIPload {
          schedule_skew -315;
          base_power DRYER*0.9764;
          power_fraction 0.100000;
          impedance_fraction 0.800000;
          current_fraction 0.100000;
          power_pf 0.900;
          current_pf 0.900;
          impedance_pf 1.000;
          heat_fraction 0.67;
     };
     object ZIPload {
          schedule_skew -315;
          base_power FREEZER*0.6278;
          power_fraction 1.000000;
          impedance_fraction 0.000000;
          current_fraction 0.000000;
          power_pf 0.970;
          current_pf 0.970;
          impedance_pf 0.970;
          heat_fraction 0.80;
     };
     object ZIPload {
          schedule_skew -315;
          base_power RANGE*0.6927;
          power_fraction 0.000000;
          impedance_fraction 1.000000;
          current_fraction 0.000000;
          power_pf 0.000;
          current_pf 0.000;
          impedance_pf 1.000;
          heat_fraction 0.82;
     };
     object ZIPload {
          schedule_skew -315;
          base_power MICROWAVE*0.4802;
          power_fraction 1.000000;
          impedance_fraction 0.000000;
          current_fraction 0.000000;
          power_pf 0.970;
          current_pf 0.970;
          impedance_pf 0.970;
          heat_fraction 0.65;
     };
}

object triplex_line {
     from F3_triplex_node_A;
     to F3_tpm_flatrate_A7;
     groupid F3_Triplex_Line;
     phases AS;
     length 10;
     configuration TLCFG;
}

object triplex_meter {
     nominal_voltage 124;
     phases AS;
     name F3_tpm_flatrate_A7;
     groupid F3_flatrate_meter;
}

object triplex_meter {
     nominal_voltage 124;
     phases AS;
     name F3_tpm_rt_A7;
     groupid F3_rt_meter;
     parent F3_tpm_flatrate_A7;
}

object house {
     name F3_H_7;
     //Residential_1
     parent F3_tpm_rt_A7;
     schedule_skew 1342;
     Rroof 20.92;
     Rwall 8.00;
     Rfloor 10.65;
     Rdoors 3;
     Rwindows 0.93;
     airchange_per_hour 0.94;
     hvac_power_factor 0.97;
     cooling_system_type ELECTRIC;
     heating_system_type GAS;
     fan_type ONE_SPEED;
     hvac_breaker_rating 200;
     total_thermal_mass_per_floor_area 4.47;
     motor_efficiency AVERAGE;
     motor_model BASIC;
     cooling_COP 2.83;
     floor_area 822;
     number_of_doors 1;
     air_temperature 68.6;
     mass_temperature 68.6;
     heating_setpoint heating3*1.034+1.03;

     object controller {
          name F3_C_7;
          use_override ON;
          override override;
          market Market3;
          schedule_skew 1342;
          bid_mode PROXY;
          object controller_network_interface {
               name F3_single_ramp_NIF_7;
               destination MarkNIF3;
          };
          control_mode RAMP;
          base_setpoint cooling4*1.045+5.84;
          setpoint cooling_setpoint;
          target air_temperature;
          deadband thermostat_deadband;
          use_predictive_bidding TRUE;
          average_target current_price_mean_24h;
          standard_deviation_target current_price_stdev_24h;
          period 300;
          demand last_cooling_load;
           range_high 0.000;
           range_low 0.000;
           ramp_high 3.000;
           ramp_low 3.000;
          total total_load;
          load hvac_load;
          state power_state;
     };

     object ZIPload {
          schedule_skew 1342;
          base_power LIGHTS*1.0908;
          power_fraction 0.600000;
          impedance_fraction 0.400000;
          current_fraction 0.000000;
          power_pf -0.780;
          current_pf 0.420;
          impedance_pf -0.880;
          heat_fraction 0.72;
     };
}

object triplex_line {
     from F3_triplex_node_A;
     to F3_tpm_flatrate_A8;
     groupid F3_Triplex_Line;
     phases AS;
     length 10;
     configuration TLCFG;
}

object triplex_meter {
     nominal_voltage 124;
     phases AS;
     name F3_tpm_flatrate_A8;
     groupid F3_flatrate_meter;
}

object triplex_meter {
     nominal_voltage 124;
     phases AS;
     name F3_tpm_rt_A8;
     groupid F3_rt_meter;
     parent F3_tpm_flatrate_A8;
}

object house {
     name F3_H_8;
     //Residential_5
     parent F3_tpm_rt_A8;
     schedule_skew 962;
     Rroof 17.90;
     Rwall 4.98;
     Rfloor 5.87;
     Rdoors 3;
     Rwindows 1.07;
     airchange_per_hour 1.39;
     hvac_power_factor 0.97;
     cooling_system_type ELECTRIC;
     heating_system_type GAS;
     fan_type ONE_SPEED;
     hvac_breaker_rating 200;
     total_thermal_mass_per_floor_area 4.59;
     motor_efficiency AVERAGE;
     motor_model BASIC;
     cooling_COP 2.71;
     floor_area 838;
     number_of_doors 1;
     air_temperature 68.1;
     mass_temperature 68.1;
     heating_setpoint heating6*1.032+1.19;

     object controller {
          name F3_C_8;
          use_override ON;
          override override;
          market Market3;
          schedule_skew 962;
          bid_mode PROXY;
          object controller_network_interface {
               name F3_single_ramp_NIF_8;
               destination MarkNIF3;
          };
          control_mode RAMP;
          base_setpoint cooling5*0.952+5.86;
          setpoint cooling_setpoint;
          target air_temperature;
          deadband thermostat_deadband;
          use_predictive_bidding TRUE;
          average_target current_price_mean_24h;
          standard_deviation_target current_price_stdev_24h;
          period 300;
          demand last_cooling_load;
           range_high 4.000;
           range_low -2.000;
           ramp_high 2.600;
           ramp_low 2.600;
          total total_load;
          load hvac_load;
          state power_state;
     };

     object ZIPload {
          schedule_skew 962;
          base_power LIGHTS*1.5037;
          power_fraction 0.000000;
          impedance_fraction 1.000000;
          current_fraction 0.000000;
          power_pf 0.000;
          current_pf 0.000;
          impedance_pf 1.000;
          heat_fraction 0.83;
     };
     object ZIPload {
          schedule_skew 962;
          base_power CLOTHESWASHER*0.3816;
          power_fraction 1.000000;
          impedance_fraction 0.000000;
          current_fraction 0.000000;
          power_pf 0.970;
          current_pf 0.970;
          impedance_pf 0.970;
          heat_fraction 0.86;
     };
     object ZIPload {
          schedule_skew 962;
          base_power REFRIGERATOR*0.6136;
          power_fraction 1.000000;
          impedance_fraction 0.000000;
          current_fraction 0.000000;
          power_pf 0.970;
          current_pf 0.970;
          impedance_pf 0.970;
          heat_fraction 0.68;
     };
     object ZIPload {
          schedule_skew 962;
          base_power DRYER*1.0603;
          power_fraction 0.100000;
          impedance_fraction 0.800000;
          current_fraction 0.100000;
          power_pf 0.900;
          current_pf 0.900;
          impedance_pf 1.000;
          heat_fraction 0.73;
     };
     object ZIPload {
          schedule_skew 962;
          base_power FREEZER*1.0678;
          power_fraction 1.000000;
          impedance_fraction 0.000000;
          current_fraction 0.000000;
          power_pf 0.970;
          current_pf 0.970;
          impedance_pf 0.970;
          heat_fraction 0.77;
     };
     object ZIPload {
          schedule_skew 962;
          base_power RANGE*0.5739;
          power_fraction 0.000000;
          impedance_fraction 1.000000;
          current_fraction 0.000000;
          power_pf 0.000;
          current_pf 0.000;
          impedance_pf 1.000;
          heat_fraction 0.95;
     };
     object ZIPload {
          schedule_skew 962;
          base_power MICROWAVE*0.4544;
          power_fraction 1.000000;
          impedance_fraction 0.000000;
          current_fraction 0.000000;
          power_pf 0.970;
          current_pf 0.970;
          impedance_pf 0.970;
          heat_fraction 0.66;
     };
}

object triplex_line {
     from F3_triplex_node_A;
     to F3_tpm_flatrate_A9;
     groupid F3_Triplex_Line;
     phases AS;
     length 10;
     configuration TLCFG;
}

object triplex_meter {
     nominal_voltage 124;
     phases AS;
     name F3_tpm_flatrate_A9;
     groupid F3_flatrate_meter;
}

object triplex_meter {
     nominal_voltage 124;
     phases AS;
     name F3_tpm_rt_A9;
     groupid F3_rt_meter;
     parent F3_tpm_flatrate_A9;
}

object house {
     name F3_H_9;
     //Residential_1
     parent F3_tpm_rt_A9;
     schedule_skew 1084;
     Rroof 15.73;
     Rwall 10.76;
     Rfloor 11.90;
     Rdoors 3;
     Rwindows 0.96;
     airchange_per_hour 0.85;
     hvac_power_factor 0.97;
     cooling_system_type ELECTRIC;
     heating_system_type GAS;
     fan_type ONE_SPEED;
     hvac_breaker_rating 200;
     total_thermal_mass_per_floor_area 3.07;
     motor_efficiency AVERAGE;
     motor_model BASIC;
     cooling_COP 2.83;
     floor_area 1002;
     number_of_doors 2;
     air_temperature 71.7;
     mass_temperature 71.7;
     heating_setpoint heating7*1.030+2.59;

     object controller {
          name F3_C_9;
          use_override ON;
          override override;
          market Market3;
          schedule_skew 1084;
          bid_mode PROXY;
          object controller_network_interface {
               name F3_single_ramp_NIF_9;
               destination MarkNIF3;
          };
          control_mode RAMP;
          base_setpoint cooling5*0.996+4.14;
          setpoint cooling_setpoint;
          target air_temperature;
          deadband thermostat_deadband;
          use_predictive_bidding TRUE;
          average_target current_price_mean_24h;
          standard_deviation_target current_price_stdev_24h;
          period 300;
          demand last_cooling_load;
           range_high 8.000;
           range_low -4.000;
           ramp_high 2.200;
           ramp_low 2.200;
          total total_load;
          load hvac_load;
          state power_state;
     };

     object ZIPload {
          schedule_skew 1084;
          base_power LIGHTS*1.3233;
          power_fraction 0.000000;
          impedance_fraction 1.000000;
          current_fraction 0.000000;
          power_pf 0.000;
          current_pf 0.000;
          impedance_pf 1.000;
          heat_fraction 0.69;
     };
     object ZIPload {
          schedule_skew 1084;
          base_power CLOTHESWASHER*0.9280;
          power_fraction 1.000000;
          impedance_fraction 0.000000;
          current_fraction 0.000000;
          power_pf 0.970;
          current_pf 0.970;
          impedance_pf 0.970;
          heat_fraction 0.95;
     };
     object ZIPload {
          schedule_skew 1084;
          base_power REFRIGERATOR*0.6021;
          power_fraction 1.000000;
          impedance_fraction 0.000000;
          current_fraction 0.000000;
          power_pf 0.970;
          current_pf 0.970;
          impedance_pf 0.970;
          heat_fraction 0.84;
     };
     object ZIPload {
          schedule_skew 1084;
          base_power DRYER*0.8040;
          power_fraction 0.100000;
          impedance_fraction 0.800000;
          current_fraction 0.100000;
          power_pf 0.900;
          current_pf 0.900;
          impedance_pf 1.000;
          heat_fraction 0.80;
     };
     object ZIPload {
          schedule_skew 1084;
          base_power RANGE*0.5404;
          power_fraction 0.000000;
          impedance_fraction 1.000000;
          current_fraction 0.000000;
          power_pf 0.000;
          current_pf 0.000;
          impedance_pf 1.000;
          heat_fraction 0.68;
     };
     object ZIPload {
          schedule_skew 1084;
          base_power MICROWAVE*0.6954;
          power_fraction 1.000000;
          impedance_fraction 0.000000;
          current_fraction 0.000000;
          power_pf 0.970;
          current_pf 0.970;
          impedance_pf 0.970;
          heat_fraction 0.73;
     };
}

object triplex_line {
     from F3_triplex_node_A;
     to F3_tpm_flatrate_A10;
     groupid F3_Triplex_Line;
     phases AS;
     length 10;
     configuration TLCFG;
}

object triplex_meter {
     nominal_voltage 124;
     phases AS;
     name F3_tpm_flatrate_A10;
     groupid F3_flatrate_meter;
}

object triplex_meter {
     nominal_voltage 124;
     phases AS;
     name F3_tpm_rt_A10;
     groupid F3_rt_meter;
     parent F3_tpm_flatrate_A10;
}

object house {
     name F3_H_10;
     //Residential_1
     parent F3_tpm_rt_A10;
     schedule_skew -1251;
     Rroof 18.14;
     Rwall 10.17;
     Rfloor 11.12;
     Rdoors 3;
     Rwindows 0.91;
     airchange_per_hour 1.15;
     hvac_power_factor 0.97;
     cooling_system_type ELECTRIC;
     heating_system_type GAS;
     fan_type ONE_SPEED;
     hvac_breaker_rating 200;
     total_thermal_mass_per_floor_area 3.05;
     motor_efficiency AVERAGE;
     motor_model BASIC;
     cooling_COP 2.76;
     floor_area 1504;
     number_of_doors 2;
     air_temperature 71.0;
     mass_temperature 71.0;
     heating_setpoint heating4*1.012+1.51;

     object controller {
          name F3_C_10;
          use_override ON;
          override override;
          market Market3;
          schedule_skew -1251;
          bid_mode PROXY;
          object controller_network_interface {
               name F3_single_ramp_NIF_10;
               destination MarkNIF3;
          };
          control_mode RAMP;
          base_setpoint cooling1*1.022+3.27;
          setpoint cooling_setpoint;
          target air_temperature;
          deadband thermostat_deadband;
          use_predictive_bidding TRUE;
          average_target current_price_mean_24h;
          standard_deviation_target current_price_stdev_24h;
          period 300;
          demand last_cooling_load;
           range_high 0.000;
           range_low 0.000;
           ramp_high 3.000;
           ramp_low 3.000;
          total total_load;
          load hvac_load;
          state power_state;
     };

     object ZIPload {
          schedule_skew -1251;
          base_power LIGHTS*1.5340;
          power_fraction 0.600000;
          impedance_fraction 0.400000;
          current_fraction 0.000000;
          power_pf -0.780;
          current_pf 0.420;
          impedance_pf -0.880;
          heat_fraction 0.79;
     };
     object ZIPload {
          schedule_skew -1251;
          base_power CLOTHESWASHER*0.8625;
          power_fraction 1.000000;
          impedance_fraction 0.000000;
          current_fraction 0.000000;
          power_pf 0.970;
          current_pf 0.970;
          impedance_pf 0.970;
          heat_fraction 0.82;
     };
     object ZIPload {
          schedule_skew -1251;
          base_power REFRIGERATOR*0.9605;
          power_fraction 1.000000;
          impedance_fraction 0.000000;
          current_fraction 0.000000;
          power_pf 0.970;
          current_pf 0.970;
          impedance_pf 0.970;
          heat_fraction 0.80;
     };
     object ZIPload {
          schedule_skew -1251;
          base_power DRYER*1.3615;
          power_fraction 0.100000;
          impedance_fraction 0.800000;
          current_fraction 0.100000;
          power_pf 0.900;
          current_pf 0.900;
          impedance_pf 1.000;
          heat_fraction 0.95;
     };
     object ZIPload {
          schedule_skew -1251;
          base_power RANGE*0.6419;
          power_fraction 0.000000;
          impedance_fraction 1.000000;
          current_fraction 0.000000;
          power_pf 0.000;
          current_pf 0.000;
          impedance_pf 1.000;
          heat_fraction 0.69;
     };
     object ZIPload {
          schedule_skew -1251;
          base_power MICROWAVE*0.8151;
          power_fraction 1.000000;
          impedance_fraction 0.000000;
          current_fraction 0.000000;
          power_pf 0.970;
          current_pf 0.970;
          impedance_pf 0.970;
          heat_fraction 0.74;
     };
}

object triplex_line {
     from F3_triplex_node_A;
     to F3_tpm_flatrate_A11;
     groupid F3_Triplex_Line;
     phases AS;
     length 10;
     configuration TLCFG;
}

object triplex_meter {
     nominal_voltage 124;
     phases AS;
     name F3_tpm_flatrate_A11;
     groupid F3_flatrate_meter;
}

object triplex_meter {
     nominal_voltage 124;
     phases AS;
     name F3_tpm_rt_A11;
     groupid F3_rt_meter;
     parent F3_tpm_flatrate_A11;
}

object house {
     name F3_H_11;
     //Residential_1
     parent F3_tpm_rt_A11;
     schedule_skew -618;
     Rroof 17.70;
     Rwall 11.27;
     Rfloor 11.29;
     Rdoors 3;
     Rwindows 1.24;
     airchange_per_hour 1.02;
     hvac_power_factor 0.97;
     cooling_system_type ELECTRIC;
     heating_system_type GAS;
     fan_type ONE_SPEED;
     hvac_breaker_rating 200;
     total_thermal_mass_per_floor_area 4.43;
     motor_efficiency AVERAGE;
     motor_model BASIC;
     cooling_COP 3.65;
     floor_area 850;
     number_of_doors 1;
     air_temperature 70.1;
     mass_temperature 70.1;
     heating_setpoint heating5*0.996+1.15;

     object controller {
          name F3_C_11;
          use_override ON;
          override override;
          market Market3;
          schedule_skew -618;
          bid_mode PROXY;
          object controller_network_interface {
               name F3_single_ramp_NIF_11;
               destination MarkNIF3;
          };
          control_mode RAMP;
          base_setpoint cooling2*1.023+2.99;
          setpoint cooling_setpoint;
          target air_temperature;
          deadband thermostat_deadband;
          use_predictive_bidding TRUE;
          average_target current_price_mean_24h;
          standard_deviation_target current_price_stdev_24h;
          period 300;
          demand last_cooling_load;
           range_high 8.000;
           range_low -4.000;
           ramp_high 2.200;
           ramp_low 2.200;
          total total_load;
          load hvac_load;
          state power_state;
     };

     object ZIPload {
          schedule_skew -618;
          base_power LIGHTS*1.8493;
          power_fraction 0.600000;
          impedance_fraction 0.400000;
          current_fraction 0.000000;
          power_pf -0.780;
          current_pf 0.420;
          impedance_pf -0.880;
          heat_fraction 0.70;
     };
}

object triplex_line {
     from F3_triplex_node_A;
     to F3_tpm_flatrate_A12;
     groupid F3_Triplex_Line;
     phases AS;
     length 10;
     configuration TLCFG;
}

object triplex_meter {
     nominal_voltage 124;
     phases AS;
     name F3_tpm_flatrate_A12;
     groupid F3_flatrate_meter;
}

object triplex_meter {
     nominal_voltage 124;
     phases AS;
     name F3_tpm_rt_A12;
     groupid F3_rt_meter;
     parent F3_tpm_flatrate_A12;
}

object house {
     name F3_H_12;
     //Residential_3
     parent F3_tpm_rt_A12;
     schedule_skew -327;
     Rroof 16.01;
     Rwall 11.19;
     Rfloor 11.62;
     Rdoors 3;
     Rwindows 1.71;
     airchange_per_hour 1.05;
     hvac_power_factor 0.97;
     cooling_system_type ELECTRIC;
     heating_system_type GAS;
     fan_type ONE_SPEED;
     hvac_breaker_rating 200;
     total_thermal_mass_per_floor_area 4.01;
     motor_efficiency AVERAGE;
     motor_model BASIC;
     cooling_COP 3.35;
     floor_area 2201;
     number_of_doors 3;
     air_temperature 68.1;
     mass_temperature 68.1;
     heating_setpoint heating5*0.984+2.19;

     object controller {
          name F3_C_12;
          use_override ON;
          override override;
          market Market3;
          schedule_skew -327;
          bid_mode PROXY;
          object controller_network_interface {
               name F3_single_ramp_NIF_12;
               destination MarkNIF3;
          };
          control_mode RAMP;
          base_setpoint cooling8*1.038+4.48;
          setpoint cooling_setpoint;
          target air_temperature;
          deadband thermostat_deadband;
          use_predictive_bidding TRUE;
          average_target current_price_mean_24h;
          standard_deviation_target current_price_stdev_24h;
          period 300;
          demand last_cooling_load;
           range_high 6.000;
           range_low -3.000;
           ramp_high 2.400;
           ramp_low 2.400;
          total total_load;
          load hvac_load;
          state power_state;
     };

     object ZIPload {
          schedule_skew -327;
          base_power LIGHTS*3.2834;
          power_fraction 0.000000;
          impedance_fraction 1.000000;
          current_fraction 0.000000;
          power_pf 0.000;
          current_pf 0.000;
          impedance_pf 1.000;
          heat_fraction 0.91;
     };
     object ZIPload {
          schedule_skew -327;
          base_power CLOTHESWASHER*1.5497;
          power_fraction 1.000000;
          impedance_fraction 0.000000;
          current_fraction 0.000000;
          power_pf 0.970;
          current_pf 0.970;
          impedance_pf 0.970;
          heat_fraction 0.69;
     };
     object ZIPload {
          schedule_skew -327;
          base_power REFRIGERATOR*1.4031;
          power_fraction 1.000000;
          impedance_fraction 0.000000;
          current_fraction 0.000000;
          power_pf 0.970;
          current_pf 0.970;
          impedance_pf 0.970;
          heat_fraction 0.65;
     };
     object ZIPload {
          schedule_skew -327;
          base_power DRYER*1.6088;
          power_fraction 0.100000;
          impedance_fraction 0.800000;
          current_fraction 0.100000;
          power_pf 0.900;
          current_pf 0.900;
          impedance_pf 1.000;
          heat_fraction 0.73;
     };
     object ZIPload {
          schedule_skew -327;
          base_power FREEZER*1.5083;
          power_fraction 1.000000;
          impedance_fraction 0.000000;
          current_fraction 0.000000;
          power_pf 0.970;
          current_pf 0.970;
          impedance_pf 0.970;
          heat_fraction 0.88;
     };
     object ZIPload {
          schedule_skew -327;
          base_power RANGE*0.8559;
          power_fraction 0.000000;
          impedance_fraction 1.000000;
          current_fraction 0.000000;
          power_pf 0.000;
          current_pf 0.000;
          impedance_pf 1.000;
          heat_fraction 0.84;
     };
     object ZIPload {
          schedule_skew -327;
          base_power MICROWAVE*0.7457;
          power_fraction 1.000000;
          impedance_fraction 0.000000;
          current_fraction 0.000000;
          power_pf 0.970;
          current_pf 0.970;
          impedance_pf 0.970;
          heat_fraction 0.91;
     };
}

object triplex_line {
     from F3_triplex_node_A;
     to F3_tpm_flatrate_A13;
     groupid F3_Triplex_Line;
     phases AS;
     length 10;
     configuration TLCFG;
}

object triplex_meter {
     nominal_voltage 124;
     phases AS;
     name F3_tpm_flatrate_A13;
     groupid F3_flatrate_meter;
}

object triplex_meter {
     nominal_voltage 124;
     phases AS;
     name F3_tpm_rt_A13;
     groupid F3_rt_meter;
     parent F3_tpm_flatrate_A13;
}

object house {
     name F3_H_13;
     //Residential_3
     parent F3_tpm_rt_A13;
     schedule_skew 922;
     Rroof 16.98;
     Rwall 13.36;
     Rfloor 11.97;
     Rdoors 3;
     Rwindows 1.43;
     airchange_per_hour 1.05;
     hvac_power_factor 0.97;
     cooling_system_type ELECTRIC;
     heating_system_type GAS;
     fan_type ONE_SPEED;
     hvac_breaker_rating 200;
     total_thermal_mass_per_floor_area 4.85;
     motor_efficiency AVERAGE;
     motor_model BASIC;
     cooling_COP 3.63;
     floor_area 2153;
     number_of_doors 3;
     air_temperature 69.5;
     mass_temperature 69.5;
     heating_setpoint heating6*1.050+1.02;

     object controller {
          name F3_C_13;
          use_override ON;
          override override;
          market Market3;
          schedule_skew 922;
          bid_mode PROXY;
          object controller_network_interface {
               name F3_single_ramp_NIF_13;
               destination MarkNIF3;
          };
          control_mode RAMP;
          base_setpoint cooling4*0.978+5.54;
          setpoint cooling_setpoint;
          target air_temperature;
          deadband thermostat_deadband;
          use_predictive_bidding TRUE;
          average_target current_price_mean_24h;
          standard_deviation_target current_price_stdev_24h;
          period 300;
          demand last_cooling_load;
           range_high 4.000;
           range_low -2.000;
           ramp_high 2.600;
           ramp_low 2.600;
          total total_load;
          load hvac_load;
          state power_state;
     };

     object ZIPload {
          schedule_skew 922;
          base_power LIGHTS*2.2484;
          power_fraction 0.000000;
          impedance_fraction 1.000000;
          current_fraction 0.000000;
          power_pf 0.000;
          current_pf 0.000;
          impedance_pf 1.000;
          heat_fraction 0.88;
     };
     object ZIPload {
          schedule_skew 922;
          base_power CLOTHESWASHER*1.5052;
          power_fraction 1.000000;
          impedance_fraction 0.000000;
          current_fraction 0.000000;
          power_pf 0.970;
          current_pf 0.970;
          impedance_pf 0.970;
          heat_fraction 0.77;
     };
     object ZIPload {
          schedule_skew 922;
          base_power REFRIGERATOR*1.1745;
          power_fraction 1.000000;
          impedance_fraction 0.000000;
          current_fraction 0.000000;
          power_pf 0.970;
          current_pf 0.970;
          impedance_pf 0.970;
          heat_fraction 0.86;
     };
     object ZIPload {
          schedule_skew 922;
          base_power DRYER*1.2624;
          power_fraction 0.100000;
          impedance_fraction 0.800000;
          current_fraction 0.100000;
          power_pf 0.900;
          current_pf 0.900;
          impedance_pf 1.000;
          heat_fraction 0.72;
     };
     object ZIPload {
          schedule_skew 922;
          base_power FREEZER*1.1381;
          power_fraction 1.000000;
          impedance_fraction 0.000000;
          current_fraction 0.000000;
          power_pf 0.970;
          current_pf 0.970;
          impedance_pf 0.970;
          heat_fraction 0.78;
     };
     object ZIPload {
          schedule_skew 922;
          base_power RANGE*0.5637;
          power_fraction 0.000000;
          impedance_fraction 1.000000;
          current_fraction 0.000000;
          power_pf 0.000;
          current_pf 0.000;
          impedance_pf 1.000;
          heat_fraction 0.65;
     };
     object ZIPload {
          schedule_skew 922;
          base_power MICROWAVE*0.8204;
          power_fraction 1.000000;
          impedance_fraction 0.000000;
          current_fraction 0.000000;
          power_pf 0.970;
          current_pf 0.970;
          impedance_pf 0.970;
          heat_fraction 0.77;
     };
}

object triplex_line {
     from F3_triplex_node_A;
     to F3_tpm_flatrate_A14;
     groupid F3_Triplex_Line;
     phases AS;
     length 10;
     configuration TLCFG;
}

object triplex_meter {
     nominal_voltage 124;
     phases AS;
     name F3_tpm_flatrate_A14;
     groupid F3_flatrate_meter;
}

object triplex_meter {
     nominal_voltage 124;
     phases AS;
     name F3_tpm_rt_A14;
     groupid F3_rt_meter;
     parent F3_tpm_flatrate_A14;
}

object house {
     name F3_H_14;
     //Residential_2
     parent F3_tpm_rt_A14;
     schedule_skew 2179;
     Rroof 29.08;
     Rwall 20.29;
     Rfloor 13.97;
     Rdoors 5;
     Rwindows 1.76;
     airchange_per_hour 0.88;
     hvac_power_factor 0.97;
     cooling_system_type ELECTRIC;
     heating_system_type GAS;
     fan_type ONE_SPEED;
     hvac_breaker_rating 200;
     total_thermal_mass_per_floor_area 4.41;
     motor_efficiency AVERAGE;
     motor_model BASIC;
     cooling_COP 3.79;
     floor_area 1319;
     number_of_doors 2;
     air_temperature 71.2;
     mass_temperature 71.2;
     heating_setpoint heating3*0.954+1.41;

     object controller {
          name F3_C_14;
          use_override ON;
          override override;
          market Market3;
          schedule_skew 2179;
          bid_mode PROXY;
          object controller_network_interface {
               name F3_single_ramp_NIF_14;
               destination MarkNIF3;
          };
          control_mode RAMP;
          base_setpoint cooling4*0.963+5.22;
          setpoint cooling_setpoint;
          target air_temperature;
          deadband thermostat_deadband;
          use_predictive_bidding TRUE;
          average_target current_price_mean_24h;
          standard_deviation_target current_price_stdev_24h;
          period 300;
          demand last_cooling_load;
           range_high 10.000;
           range_low -5.000;
           ramp_high 2.000;
           ramp_low 2.000;
          total total_load;
          load hvac_load;
          state power_state;
     };

     object ZIPload {
          schedule_skew 2179;
          base_power LIGHTS*1.8811;
          power_fraction 0.600000;
          impedance_fraction 0.400000;
          current_fraction 0.000000;
          power_pf -0.780;
          current_pf 0.420;
          impedance_pf -0.880;
          heat_fraction 0.85;
     };
     object ZIPload {
          schedule_skew 2179;
          base_power CLOTHESWASHER*0.4411;
          power_fraction 1.000000;
...